/*--------------------------------*- C++ -*----------------------------------*\
  =========                 |
  \\      /  F ield         | OpenFOAM: The Open Source CFD Toolbox
   \\    /   O peration     | Website:  https://openfoam.org
    \\  /    A nd           | Version:  11
     \\/     M anipulation  |
\*---------------------------------------------------------------------------*/
FoamFile
{
    format      ascii;
    class       volVectorField;
    location    "0/film";
    object      U;
}
// * * * * * * * * * * * * * * * * * * * * * * * * * * * * * * * * * * * * * //

dimensions      [0 1 -1 0 0 0 0];

internalField   uniform (0 0 0);

boundaryField
{
    top
    {
        type            fixedValue;
        value           uniform (0 0 -0.025);
    }
    
    bottom
    {
        type            zeroGradient;
    }

    surface
    {
        type            filmSurfaceVelocity;
        Cs              0.0;
        value           $internalField;
    }

    wall
    {
        type            noSlip;
    }

    "(side.*)"
    {
        type            symmetry;
    }
}

// ************************************************************************* //
