/*--------------------------------*- C++ -*----------------------------------*\
  =========                 |
  \\      /  F ield         | OpenFOAM: The Open Source CFD Toolbox
   \\    /   O peration     | Website:  https://openfoam.org
    \\  /    A nd           | Version:  11
     \\/     M anipulation  |
\*---------------------------------------------------------------------------*/
FoamFile
{
    format      ascii;
    class       volScalarField;
    location    "0";
    object      T;
}
// * * * * * * * * * * * * * * * * * * * * * * * * * * * * * * * * * * * * * //

dimensions      [0 0 0 1 0 0 0];

internalField   uniform 298;

boundaryField
{
    bottom
    {
        type            fixedValue;
        value           $internalField;
    }

    top
    {
        type            zeroGradient;
    }

    film
    {
        type            coupledTemperature;
        value           $internalField;
    }

    "(side.*)"
    {
        type            wedge;
    }
}

// ************************************************************************* //
