/*--------------------------------*- C++ -*----------------------------------*\
  =========                 |
  \\      /  F ield         | OpenFOAM: The Open Source CFD Toolbox
   \\    /   O peration     | Website:  https://openfoam.org
    \\  /    A nd           | Version:  11
     \\/     M anipulation  |
\*---------------------------------------------------------------------------*/
FoamFile
{
    format      ascii;
    class       dictionary;
    location    "constant";
    object      fvModels;
}
// * * * * * * * * * * * * * * * * * * * * * * * * * * * * * * * * * * * * * //

bulkMassTransfer
{
    type                bulkMassTransfer;
    
    select              all;
    
    transferPatch       fluid_to_film; // Name of patch on which mass transfer occurs
        
    specie              CO2; // Name of specie to transfer
    
    // Mass transfer model type (options: constant, physical)
    interphaseMassTransferModel physical;
    
    // Coefficients for physical mass transfer model
    physicalCoeffs
    {        
        H1                  0.0; // 1st coefficient for Henry volatility constant, Pa-m^3/kmol/K

        H2		    2.27e+6; // 2nd coefficient for Henry volatility constant, Pa-m^3/kmol
        
        Dl1                 0.0; // 1st coefficient for Diffusivity of specie in film, m^2/s/K

        Dl2                 1.66e-9; // 2nd coefficient for Diffusivity of specie in film, m^2/s 
        
        bulkMassTransferRateModel
        {
            massTransferRateCoefficientModel porousMedia;
            
            porousMediaCoeffs
            {            
                D               1.67e-5; // Diffusivity of specie in bulk, m^2/s
            
                C           	0.021; // empirical constant
        
                porosity       	0.65; // Porosity of the cooling tower

		poreDiameter	0.0304; // Pore diameter of the cooling tower. README file has details about calculation
            }
        }
        
        filmMassTransferRateModel
        {
            massTransferRateCoefficientModel Higbie;
            
            HigbieCoeffs
            {            
               D1               $Dl1;

               D2		$Dl2;
            
               inlet           (0.0 0.254 0.0); // Point anywhere along film inlet
        
               direction       (0 -1 0); // Film flow direction
            }
        }
        
        enhancementModel    lowHa; // Enhancement factor model type
        
        tStart              1.0; // When to start chemically enhanced xfer
    }
}

// ************************************************************************* //
